**********************
* Autodesk EAGLE - SPICE Model File
* Author:
* Date: 
**********************
.SUBCKT 2SC3324 1 2 3
Q1 1 2 3 3 2SC3324_BJT
.MODEL 2SC3324_BJT NPN(
+ LEVEL = 1
+ IS = 1.3e-013
+ BF = 475
+ NF = 1
+ VAF = 200
+ IKF = 0.2
+ ISE = 3.5e-014
+ NE = 1.3
+ BR = 28
+ NR = 1
+ VAR = 10
+ IKR = 0.004
+ ISC = 1.5e-010
+ NC = 1.5
+ NK = 0.5
+ RE = 0.25
+ RB = 2
+ RC = 0.02
+ CJE = 3.0625e-011
+ VJE = 0.75
+ MJE = 0.33
+ CJC = 4.9687e-012
+ VJC = 0.9247
+ MJC = 0.1914
+ FC = 0.5
+ TF = 3e-010
+ XTF = 50
+ VTF = 5
+ ITF = 0.1
+ PTF = 0
+ TR = 10E-09
+ EG = 1.11
+ XTB = 1.5
+ XTI = 4
+ TRC1 = 0.05
+ TNOM = 25)
.ENDS SUBCKT